Circuit: * D:\Elektronik\Projekte\unimoc\hardware_4850\sim\current_filters.asc

Direct Newton iteration for .op point succeeded.
Heightened Def Con from 0.012375 to 0.012375
Heightened Def Con from 0.0135 to 0.0135
Heightened Def Con from 0.020175 to 0.020175
Heightened Def Con from 0.020175 to 0.020175

Date: Fri Feb 19 13:14:32 2021
Total elapsed time: 17.255 seconds.

tnom = 27
temp = 27
method = modified trap
totiter = 938589
traniter = 938550
tranpoints = 212331
accept = 161093
rejected = 51242
matrix size = 253
fillins = 280
solver = Normal
Thread vector: 10.2/5.7[4] 4.2/2.7[4] 1.2/1.7[1] 1.2/4.6[1]  2592/500
Matrix Compiler1: 23.84 KB object code size  8.2/3.1/[2.0]
Matrix Compiler2: 23.76 KB object code size  2.3/3.9/[1.3]

