Circuit: * C:\Projekte\unimoc\hardware_4850\sim\current_filters.asc

Direct Newton iteration for .op point succeeded.

Date: Sun Mar 28 16:32:16 2021
Total elapsed time: 6.448 seconds.

tnom = 27
temp = 27
method = modified trap
totiter = 188546
traniter = 188507
tranpoints = 38622
accept = 28574
rejected = 10048
matrix size = 251
fillins = 262
solver = Normal
Thread vector: 15.5/11.5[4] 9.7/5.5[4] 3.0/6.7[1] 1.2/4.2[1]  2592/500
Matrix Compiler1: 22.89 KB object code size  12.6/6.5/[3.3]
Matrix Compiler2: 23.15 KB object code size  5.7/7.9/[1.6]

