Circuit: * D:\Elektronik\Projekte\unimoc\hardware_4850\logic\sim\current_filters.asc

Direct Newton iteration failed to find .op point.  (Use ".option noopiter" to skip.)
Starting Gmin stepping
Gmin = 10
Gmin = 1.07374
vernier = 0.5
vernier = 0.25
Gmin = 0.281475
vernier = 0.125
vernier = 0.0625
vernier = 0.03125
Gmin = 0.264596
vernier = 0.015625
vernier = 0.0078125
vernier = 0.00390625
vernier = 0.00195313
Gmin = 0.265883
vernier = 0.000976563
vernier = 0.000488281
Gmin = 0
Gmin stepping succeeded in finding the operating point.

Changing Tseed to 1.98242e-09
Changing Tseed to 1.98242e-11
Changing Tseed to 1.98242e-08
Changing Tseed to 1.98242e-12
Changing Tseed to 1.98242e-07
Changing Tseed to 1.98242e-13
Changing Tseed to 1.98242e-06
Changing Tseed to 1.98242e-14
Changing Tseed to 1.98242e-05
Changing Tseed to 1.98242e-15

Date: Tue Apr 21 16:35:53 2020
Total elapsed time: 12.034 seconds.

tnom = 27
temp = 27
method = modified trap
totiter = 656169
traniter = 654562
tranpoints = 158639
accept = 119620
rejected = 39009
matrix size = 256
fillins = 423
solver = Normal
Thread vector: 11.3/6.4[4] 4.6/2.8[4] 1.8/1.0[2] 1.6/3.3[1]  2592/500
Matrix Compiler1: 30.16 KB object code size  7.2/3.1/[1.8]
Matrix Compiler2: 26.38 KB object code size  3.9/4.4/[1.6]

