Circuit: * D:\Elektronik\Projekte\unimoc\hardware_4850\logic\sim\current_filters.asc

Direct Newton iteration failed to find .op point.  (Use ".option noopiter" to skip.)
Starting Gmin stepping
Gmin = 10
Gmin = 1.07374
Gmin = 0.115292
Gmin = 0.0123794
Gmin = 0.00132923
vernier = 0.5
vernier = 0.25
vernier = 0.125
vernier = 0.0625
Gmin = 0.00100083
vernier = 0.03125
vernier = 0.015625
vernier = 0.0078125
vernier = 0.00390625
vernier = 0.00195313
Gmin = 0.00100083
vernier = 0.000976563
vernier = 0.000488281
Gmin = 0
Gmin stepping failed

Starting source stepping with srcstepmethod=0
Source Step = 3.0303%
Source Step = 33.3333%
Source Step = 63.6364%
Source Step = 72.7273%
Source Step = 80.303%
Source Step = 87.8788%
Source Step = 95.4545%
Source stepping succeeded in finding the operating point.


Date: Sat Mar 21 08:55:21 2020
Total elapsed time: 1.079 seconds.

tnom = 27
temp = 27
method = modified trap
totiter = 53211
traniter = 50990
tranpoints = 24811
accept = 19635
rejected = 5176
matrix size = 82
fillins = 88
solver = Normal
Thread vector: 19.6/8.1[4] 4.2/3.3[2] 5.0/2.8[4] 0.3/1.1[1]  2592/500
Matrix Compiler1: 7.50 KB object code size  1.7/0.8/[0.4]
Matrix Compiler2: 8.51 KB object code size  1.2/1.6/[0.5]

