Circuit: * C:\Work\unimoc\hardware_4850\hardware_4850\logic\sim\current_filters.asc

Direct Newton iteration failed to find .op point.  (Use ".option noopiter" to skip.)
Starting Gmin stepping
Gmin = 10
Gmin = 1.07374
Gmin = 0.115292
Gmin = 0.0123794
Gmin = 0.00132923
vernier = 0.5
vernier = 0.25
vernier = 0.125
vernier = 0.0625
Gmin = 0.00100083
vernier = 0.03125
vernier = 0.015625
vernier = 0.0078125
vernier = 0.00390625
vernier = 0.00195313
Gmin = 0.00100083
vernier = 0.000976563
vernier = 0.000488281
Gmin = 0
Gmin stepping failed

Starting source stepping with srcstepmethod=0
Source Step = 3.0303%
Source Step = 33.3333%
Source Step = 63.6364%
Source Step = 67.4242%
Source Step = 69.3182%
Source Step = 71.2121%
Source Step = 73.1061%
Source Step = 75%
vernier = 0.09375
Source Step = 77.178%
Source Step = 80.0189%
Source Step = 82.8598%
Source Step = 85.7008%
Source Step = 88.5417%
vernier = 0.140625
Source Step = 91.6667%
Source Step = 95.928%
Source Step = 100%
Source stepping succeeded in finding the operating point.


Date: Wed Feb 26 13:46:50 2020
Total elapsed time: 2.366 seconds.

tnom = 27
temp = 27
method = modified trap
totiter = 133772
traniter = 131095
tranpoints = 42319
accept = 32522
rejected = 9797
matrix size = 82
fillins = 96
solver = Normal
Thread vector: 8.9/5.6[4] 3.0/5.0[1] 7.3/2.4[4] 0.6/4.1[1]  2592/500
Matrix Compiler1: 7.71 KB object code size  1.6/0.7/[0.4]
Matrix Compiler2: 8.65 KB object code size  3.5/5.3/[0.8]

